      21
 i =      250, E =      -108.5650049371
  C         6.4499525789        6.7463599986        4.3815199028
  C         7.9554842707        6.7769118028        4.5188004189
  N         8.4905547254        7.7996335196        3.7064701691
  C         9.6354143440        8.2588561435        4.2749033927
  C         6.0997739568       10.9393767480        8.8578293351
  N         6.5195948731       11.8747387079        8.2619225991
  O        10.9884432702        6.9041989810        8.5940657675
  C        10.0295742155        7.3878766528        5.3028615842
  C         8.9233147256        6.4814833687        5.4828201539
  C         5.6619884186        9.7108272495        9.1759841177
  C        11.3805981574        7.6555238483        7.7326136130
  C        11.0362102292        7.9316052075        6.2313208282
  O        11.5010511622        9.0695389196        6.0236862717
  H         6.0728493212        7.6175361491        4.9904782909
  H         5.8801986400        6.0040467176        4.9151961795
  H         6.4471618162        7.2567316279        3.4652746840
  H         7.8563910297        8.4494405605        3.2224529546
  H         9.9867188774        9.2750436497        4.1319641285
  H         8.7451250035        5.8771022570        6.3717745157
  H         6.3674013917        9.0517427499        9.7275219797
  H        11.8106237110        8.6373617370        7.8643528027
